data_image0
_chemical_formula_structural       Ba2CuH14C6O16
_chemical_formula_sum              "Ba2 Cu1 H14 C6 O16"
_cell_length_a       6.94195
_cell_length_b       7.17879
_cell_length_c       8.79165
_cell_angle_alpha    82.256
_cell_angle_beta     71.357
_cell_angle_gamma    81.5829

_space_group_name_H-M_alt    "P 1"
_space_group_IT_number       1

loop_
  _space_group_symop_operation_xyz
  'x, y, z'

loop_
  _atom_site_type_symbol
  _atom_site_label
  _atom_site_symmetry_multiplicity
  _atom_site_fract_x
  _atom_site_fract_y
  _atom_site_fract_z
  _atom_site_occupancy
  Ba  Ba1       1.0  0.09830  0.73435  0.35341  1.0000
  Ba  Ba2       1.0  0.90169  0.26565  0.64659  1.0000
  Cu  Cu1       1.0  0.00001  0.00000  0.00000  1.0000
  H   H1        1.0  0.59630  0.90437  0.07226  1.0000
  H   H2        1.0  0.40370  0.09563  0.92774  1.0000
  H   H3        1.0  0.00461  0.36603  0.08998  1.0000
  H   H4        1.0  0.99539  0.63396  0.91002  1.0000
  H   H5        1.0  0.45740  0.39774  0.12471  1.0000
  H   H6        1.0  0.54260  0.60226  0.87528  1.0000
  H   H7        1.0  0.34668  0.05720  0.42535  1.0000
  H   H8        1.0  0.65332  0.94280  0.57466  1.0000
  H   H9        1.0  0.30122  0.92729  0.59164  1.0000
  H   H10       1.0  0.69878  0.07271  0.40836  1.0000
  H   H11       1.0  0.38406  0.34764  0.41906  1.0000
  H   H12       1.0  0.61594  0.65236  0.58094  1.0000
  H   H13       1.0  0.35029  0.40454  0.59271  1.0000
  H   H14       1.0  0.64971  0.59547  0.40729  1.0000
  C   C1        1.0  0.65179  0.80750  0.16208  1.0000
  C   C2        1.0  0.34821  0.19250  0.83792  1.0000
  C   C3        1.0  0.04498  0.27532  0.19007  1.0000
  C   C4        1.0  0.95502  0.72468  0.80993  1.0000
  C   C5        1.0  0.57703  0.28113  0.13767  1.0000
  C   C6        1.0  0.42297  0.71886  0.86233  1.0000
  O   O1        1.0  0.83700  0.81495  0.15898  1.0000
  O   O2        1.0  0.16300  0.18505  0.84102  1.0000
  O   O3        1.0  0.53522  0.69685  0.25824  1.0000
  O   O4        1.0  0.46478  0.30316  0.74177  1.0000
  O   O5        1.0  0.06417  0.35074  0.30403  1.0000
  O   O6        1.0  0.93582  0.64926  0.69597  1.0000
  O   O7        1.0  0.07042  0.09575  0.17915  1.0000
  O   O8        1.0  0.92959  0.90425  0.82085  1.0000
  O   O9        1.0  0.71898  0.24146  0.01130  1.0000
  O   O10       1.0  0.28103  0.75854  0.98870  1.0000
  O   O11       1.0  0.55542  0.20130  0.28060  1.0000
  O   O12       1.0  0.44457  0.79870  0.71939  1.0000
  O   O13       1.0  0.24144  0.98685  0.50577  1.0000
  O   O14       1.0  0.75856  0.01315  0.49424  1.0000
  O   O15       1.0  0.28604  0.42259  0.50474  1.0000
  O   O16       1.0  0.71396  0.57741  0.49526  1.0000
